/*--------------------------------*- C++ -*----------------------------------*\
| =========                 |                                                 |
| \\      /  F ield         | OpenFOAM: The Open Source CFD Toolbox           |
|  \\    /   O peration     | Version:  2.2.2                                 |
|   \\  /    A nd           | Web:      www.OpenFOAM.org                      |
|    \\/     M anipulation  |                                                 |
\*---------------------------------------------------------------------------*/
FoamFile
{
    version     2.0;
    format      ascii;
    class       volScalarField;
    object      T;
}
// * * * * * * * * * * * * * * * * * * * * * * * * * * * * * * * * * * * * * //

dimensions      [0 0 0 1 0 0 0];

internalField   uniform 300;

boundaryField
{
    top
    {
        type            symmetryPlane;
    }
    inlet
    {
        type            fixedValue;
        value           uniform 300;
    }

    outlet
    {
        type            inletOutlet;
        inletValue      uniform 300;
        value           uniform 300;
    }
    air_to_brick
    {
        type            compressible::turbulentTemperatureRadCoupledMixed;
		Tnbr 			T;
		kappa 			fluidThermo;
		QrNbr 			none;
		Qr 				none;
		kappaName 		none;
		value 			uniform 300;
    }	
    ground      
    {
        type            fixedValue;
        value           uniform 300;
    }
    walls      
    {
        type            fixedValue;
        value           uniform 300;
    }	
    sides
    {
        type            empty;
    }
}

// ************************************************************************* //
